98
optimised geometry A3
C        3.4198275446       -2.6283047855        0.2505040582
C        2.5335712060       -2.2864721761       -2.0190743518
C        3.7632224448        2.1066607414       -2.4707411308
C        1.4749638039        0.9157232813        3.4822465683
C        0.5351716626        3.3862288562       -1.6652292431
C        2.4376756021       -2.8872063474       -0.7036363806
C        0.9991048101        3.2849996038        1.9879503559
C        4.9907679905        0.2251037581       -1.4652517738
C       -1.0505040489       -0.3828431828       -1.9211810297
C        0.1895250758        1.2101052889        3.0336234210
C       -1.5247287308       -1.5069107858        0.1813683775
C       -1.5928606416        0.6081766717       -1.0151006702
C       -1.0513806944        2.1340589429        1.2673846306
C        1.0969550334        3.8946581218        0.6741607552
C        0.2617147096       -2.3593335490       -1.4415769010
C        2.8814263545        3.7133539755       -1.0060746492
C       -0.6700593886       -2.1343411789        1.3848677670
C       -0.2099597357       -1.1229631407        2.4296541903
C        1.8799287600        3.4288918564       -2.0142183064
C        4.6284378282        1.3813733749        1.8862616714
C        4.7819471585        2.3498184177       -0.2452846741
C        5.2677604901        0.9862889592       -0.3361042180
C        4.6086042970       -1.1641818723       -1.3274398321
C        1.1295903128       -1.4209857015        2.8529472641
C       -0.8479789181       -1.5934251983       -1.1797253725
C        3.5962248872       -1.4488189927       -2.3279228019
C       -0.0489614134        2.4211362298        2.2739071075
C        1.1937921633       -1.9616743720       -2.4671150605
C       -1.2455261923        1.9486756307       -1.1588139691
C        3.3623424043       -0.3945408797        3.0213067816
C        4.2220404452        0.7977668350       -2.5562941756
C       -1.7164411017        0.0026386652        0.2802391436
C        4.8103511455       -0.9465800145        1.1133260884
C       -0.9686622436        2.7351890574        0.0134411528
C       -0.1780546353        0.0033324246       -2.9357227604
C        3.2657750851        3.3690314808        1.4007798028
C        2.3412645440        2.9682652315        2.4399117631
C        0.2009403891        1.3987061320       -3.0715177182
C        1.9573222066       -0.4368552487        3.3876342179
C       -0.6616502159        0.1702061529        2.5096514223
C        3.7424130796        0.9975132865        2.8860407204
C        0.6728504119       -2.7157000772        0.9706453600
C        2.0821433229        0.0758053538       -3.5267502608
C       -1.4402693016        0.7523554334        1.3961296161
C       -0.3204497249        2.3483319276       -2.2049621187
C        3.8847864291       -1.3442820569        2.1552804396
C        2.4251921377        2.4354984531       -2.9198054266
C        4.5208958712       -1.7406463484       -0.0662842924
C        4.0467986670        2.8973721515       -1.2884908290
C        0.9753334313       -0.8079479291       -3.2176132580
C        1.6023988688        1.4423280518       -3.4382609787
C        1.0463076798       -2.9423619317       -0.3303898608
C        1.6758097039       -2.4109994706        1.9479122092
C        4.3857206845        2.5927269513        1.1286375329
C        3.3645100962       -0.2372438260       -3.0930235656
C        0.1346624245        3.6243156388       -0.2911059725
C        2.5731142754        1.8083406580        3.1691777370
C        2.4968735794        3.9417399947        0.3096874411
C        3.0270185788       -2.3824496342        1.6123913750
C        5.1741617782        0.3882369121        0.9806709688
H       -4.7811580311       -2.5606552481       -0.7060995574
H       -3.7402787407       -1.3728895204       -1.4724156841
H       -3.3023517868       -4.0430088907       -2.1188318293
H       -2.3933714159       -6.3625104578       -2.2663719939
H       -1.0913492623       -7.3275299360       -0.3956213252
H       -0.6571576505       -5.9908016494        1.6717490537
C       -2.7381075860       -4.4687533146       -1.2858172058
C       -2.2202695518       -5.7677795368       -1.3665128714
C       -1.4851158599       -6.3120351855       -0.3110683866
C       -1.2452950348       -5.5704258493        0.8527711257
C       -2.5168044716       -3.7464309564       -0.1215713913
C       -1.7771900266       -4.2915645153        0.9351368384
H       -3.0761629566       -1.5401230017        2.3432335634
H       -3.8605758527       -3.1294358774        2.0833047407
H       -1.3765491443       -3.5291693641        2.9836726466
C       -3.0080059856       -2.4948727620        1.8018901701
C       -2.8923686180       -2.3290328538        0.2721034581
C       -1.6622537514       -3.2072741263        1.9761512167
C       -9.4467300397        3.3205501301       -0.1605137707
H       -9.3869240383        4.9950687613        1.2313119744
H      -10.5278658158        3.7114535793        1.6895813560
H      -10.9313057269        4.8278669214        0.3652795590
C      -10.1098842134        4.2650342525        0.8336368736
O       -6.6003301283        0.8839488180        0.1247316603
C       -5.9050249194       -0.0047822627       -0.5805832190
C       -4.8282322488       -0.6464086566        0.2486117063
C       -4.0758976178       -1.7434671091       -0.4904700988
H       -5.3028394181       -1.0325280210        1.1638586680
H       -4.1647650679        0.1661870211        0.5814886123
O       -6.1287812171       -0.2404285589       -1.7490745216
C       -8.3012800735        2.5230929233        0.4559679537
C       -7.6548397121        1.5890839556       -0.5427893522
H       -9.0666872910        3.8961511816       -1.0216990592
H      -10.1984487481        2.6221465216       -0.5661712440
H       -8.6733626025        1.9324137836        1.3098480682
H       -7.5357178174        3.2115137369        0.8514570617
H       -7.2315476338        2.1420238659       -1.3961089565
H       -8.3788698352        0.8595894143       -0.9384127927
