114
optimised geometry A4
C        0.3741004700       -3.5990433628        0.8720827185
C       -8.5595128920       -8.3630146936        1.9029829009
C       -8.8126720577       -7.3917627013        0.9239360293
C        1.6184070800       -4.8977504745       -0.6137412627
N       -8.0515895551      -10.6062623716        4.9527985230
H        2.2109483373       -5.1065509283       -1.5058634138
C        1.3437876116       -5.8507029332        0.3300006270
N        5.5016996795        7.1906490358       -5.5036811892
H        1.1738572189       -2.7424296242       -0.9508671353
C        1.0651483859       -3.6171035132       -0.3089651812
C       -0.1349971700       -1.1334890677        0.7782618307
C        1.1062057227        0.7606831564        0.0613534121
C       -0.0273032913        1.2663186385       -0.6103500947
C       -1.2316165276        0.5804957782       -0.5920992340
C       -1.2697835497       -0.6258474611        0.1102421742
H        0.8898281455       -1.8179104635        7.3985509677
H       -1.3603804640       -1.7392692186        6.1055836549
N       -5.0914969033       -7.6271004790        5.4194427597
C       -4.1636704005       -3.1731431660        0.7339240748
C       -2.3469747976       -1.5782379601        0.3291772552
C       -5.9169813066       -8.0039264317        4.6961742908
S       -3.1463112723       -5.0209701663        2.2124666280
O       -7.7683747603       -5.3289388745        0.2943636879
C       -4.8481893800       -5.1281537337        1.7542514469
S       -4.0104417651       -1.6684734661       -0.1368296447
C       -5.2336346041       -4.0558843266        0.9609735584
C       -0.7422597521       -1.9419925709        5.2296440572
H        0.8975024210       -7.9623330842        0.3820297819
C        0.6161494569       -2.0947271491        5.3031365822
H        2.3856813354       -7.5094507958        1.2393241035
C       -7.7877339940       -6.3242653707        0.9935902670
H        2.3529130764       -7.5132775352       -0.5413802038
C        1.7650248879       -7.2851175110        0.3581397862
H       -2.3171729179       -1.9836018657        3.6565508446
C       -2.9578062364       -3.5559003868        1.3404612531
C       -1.9153138564       -2.6294120922        1.0991752063
C       -9.8789274117       -7.4839367687        0.0411075141
C       -7.3795014829       -7.9409472981        2.6931771781
H       -6.2468975843       -3.9430741477        0.5839858245
C       -9.3920398076       -9.4808419258        1.9914127119
C      -10.7109359825       -8.5993020343        0.1381028711
C      -10.4611535233       -9.5841428752        1.0988543118
C       -7.5900522219       -9.6734538584        4.4403708666
H        2.0292742925       -2.9799945730        6.6748536439
H        2.2567794732       -1.2378100458        6.4150195053
N        8.2010101567       10.4244938735       -4.9643761317
C        1.0684190273       -0.4461442901        0.7626285440
H       -2.1176243905        0.9656018645       -1.1007273273
H        1.9546349416       -0.8316126283        1.2706053811
C       -0.4495060916       -2.4703793963        1.4707743884
S        0.4032801390       -5.1692331145        1.6182598739
S        1.2724534283       -2.4258951206        3.7320207348
C        1.4982055438       -2.0300211255        6.5088069697
C       -6.9662075085       -8.5187769455        3.8685183466
C       -0.2913736668       -2.3484961993        2.9767096880
C       -1.2601001340       -2.0833174012        3.9065423473
H      -10.0493051801       -6.7044685484       -0.7038975723
H      -11.5587242558       -8.7093905418       -0.5407275558
C       -5.5642749601       -6.2518606262        2.2791323084
C       -6.8186118504       -6.7446777709        2.0429954183
H       -4.9612362034       -6.8346136126        2.9801973435
C        0.2909438889        2.5978819180       -1.3117500261
H      -11.1144995720      -10.4568503398        1.1553511578
H       -9.2297333585      -10.2736757946        2.7186438215
C        1.7566152503        2.7570247619       -0.9389674495
C        2.1837738991        1.7124108810       -0.1577508472
C        2.8022961272        3.6787270708       -1.1863056364
C        4.0025412941        3.3036322844       -0.5650690952
S        3.8438461545        1.8077178838        0.3188355548
S        3.0005761845        5.1287755807       -2.0832049952
C        4.6955415258        5.2440630601       -1.6062019360
C        5.0739135987        4.1856291627       -0.7927671193
C       -0.5307134215        3.7326677795       -0.7220459216
C        0.1340297872        2.4653126113       -2.8168116944
C        5.4342321507        6.3440426878       -2.1517749105
C        6.6580708196        6.8660869346       -1.8365217056
C        1.1028544808        2.1887863532       -3.7432388415
C        0.5860942925        2.0389981152       -5.0658293463
C       -0.7715938365        2.1966892668       -5.1422428103
S       -1.4285186540        2.5430820487       -3.5746679542
S       -0.5531494946        5.2985386728       -1.4774176043
C       -1.4959570201        5.9900713045       -0.1962279731
C       -1.7760647614        5.0434608259        0.7522857443
C       -1.2253648385        3.7595677395        0.4567352068
C        7.4949079332        6.5804736701       -0.6370563542
C        8.4479185618        7.7110300142       -0.5240366259
C        8.2956859620        8.5772758156       -1.6168035554
C        7.2704885869        8.0132656953       -2.5231031843
C       -1.9131028965        7.4254595068       -0.2341632891
C       -1.6523933311        2.1262357672       -6.3485079894
O        7.4234144343        5.6440592625        0.1353363815
C        7.0331594775        8.4197691862       -3.8122690155
C        9.3673859775        7.9465364638        0.4878494473
C       10.1474884633        9.1001658807        0.4042928464
C        9.9933397369        9.9812345228       -0.6706474479
C        9.0744961328        9.7334594224       -1.6928252147
C        6.1687528268        7.7258749764       -4.7195435738
C        7.6953228020        9.5331848604       -4.4207805233
H        6.0829273699        4.0755976143       -0.4040886699
H        4.8868419908        6.8732951121       -2.9374064288
H        2.1591713250        2.0866341413       -3.4910185154
H        1.2044438910        1.8266888126       -5.9393350924
H       -2.3706943411        5.2591436626        1.6413764012
H       -1.3383883174        2.8889365745        1.1033588961
H       -2.5028326328        7.6606661938        0.6623341729
H       -1.0436197307        8.1000917958       -0.2597343207
H       -2.5306834248        7.6461677879       -1.1184195604
H       -2.4159462207        1.3396021055       -6.2484697510
H       -2.1773936452        3.0778843825       -6.5240238018
H       -1.0441496324        1.9022473769       -7.2354300350
H        9.4656055758        7.2476722251        1.3206488271
H       10.8790772448        9.3218732250        1.1835353682
H       10.6030721036       10.8856176146       -0.7149347112
H        8.9783079078       10.4481647327       -2.5080390363
