126
optimised geometry A5
C       -0.6327140735       -0.9175377234       -1.0041309995
C      -13.4891909470       -1.9029450720       -2.0707246288
H       -7.3294966818       -0.3027063215       -1.1059570545
O       -9.3521484837       -0.7341335019       -1.2394810485
C       -6.5761151940       -1.3029351124       -2.8851216846
N      -11.7296062258       -2.6711397250       -7.5813638530
S       -4.9955039980       -1.7796756854       -3.5155755123
C        1.3004377501       -0.4434176969        0.2947862855
C       -2.8068142896       -0.4034662478       -0.4620038179
C       -1.4282616417       -0.3065670462       -0.0093058628
C       -0.8719968325        0.2439852780        1.1472877933
C       -5.1264742834       -0.5889248328       -1.2339526023
N       -7.6806919977       -1.5255810285       -7.1956134032
C        0.5044452429        0.1635954151        1.2916549710
C       -8.6406606118       -1.7457926601       -6.5821811762
S       -4.3425045541        0.0716848887        0.1796796871
C       -6.4648701399       -0.6729909158       -1.6511554400
C       -9.7826542940       -1.1789335561       -2.2858404823
C       -4.2038381041       -1.1446470409       -2.1336928243
C       -2.8682884484       -1.0279128827       -1.6834372346
C      -12.2469362431       -1.4873144134       -1.6228018263
C      -10.0551070048       -1.8728860366       -4.5467194993
C      -12.6153437643       -2.4004618303       -4.2917033034
C      -13.6625634391       -2.3567718787       -3.3851358568
C      -10.9208964220       -2.3767537822       -6.8035925511
N        7.5419420067        0.7242153530        7.5031649385
C        0.7448025796       -0.9883290738       -0.8645875655
H       -1.4981249812        0.7098342464        1.9108101751
H        1.3706865109       -1.4592418169       -1.6250130994
C       -1.4895413725       -1.4296867603       -2.1704439631
C       -9.8718586149       -2.0117664188       -5.9005183918
H      -12.1098206685       -1.1381793249       -0.5982132617
C       -7.6960877394       -1.5997830567       -3.7230438967
N       11.5924441696        1.8675837363        7.8958522653
C      -11.3584268577       -1.9801863789       -3.8505009825
C      -11.1988809739       -1.5421494742       -2.5312821997
C       -9.0496828122       -1.4977122520       -3.5395757847
H       -7.3920476598       -2.0188127688       -4.6854773023
C        1.3617573288        0.6802320126        2.4553761542
C       -1.6863097783       -7.2753674655       -2.7133547247
H      -12.8224516076       -2.7686549918       -5.2946392879
C        2.7409097882        0.2824639305        1.9661548974
C        2.6778554151       -0.3578121105        0.7531321352
C        4.0728056360        0.3666473301        2.4336344909
C        4.9936709427       -0.2089785986        1.5447652488
S        4.2098268762       -0.8700730807        0.1312116161
S        4.8641444180        1.0092979338        3.8120057842
C        6.4432202764        0.5140739195        3.1921053279
C        6.3311520650       -0.1316279811        1.9664111447
C        7.5624241291        0.8075954870        4.0322085121
C        8.9157290824        0.6981258237        3.8514012991
C        9.6491570961        0.3762976572        2.5987071733
C       11.0657719994        0.7378064157        2.8450362394
C       11.2248886760        1.1765732228        4.1641204288
C        9.9208878122        1.0715743586        4.8592393696
O        9.2185709161       -0.0688375916        1.5525509821
C        9.7359808305        1.2102270810        6.2128066416
C       12.1145739086        0.6810170037        1.9375414207
C       13.3569728384        1.0953952046        2.3862825152
C       13.5298451967        1.5499144031        3.7005152097
C       12.4819230169        1.5954963183        4.6061847319
C       10.7841662338        1.5739981763        7.1173336440
C        8.5033278861        0.9445129235        6.8919985609
H        7.1943781521       -0.5173179536        1.4297759271
H        7.2586602911        1.2322485892        4.9923126400
H       11.9779712917        0.3313257016        0.9130729814
H       12.6884803741        1.9640862459        5.6091057542
F      -14.8729421509       -2.7529509435       -3.7539143149
F      -14.5427258956       -1.8864607799       -1.2676840394
F       14.7403998536        1.9448981652        4.0699870819
F       14.4111690438        1.0770164383        1.5841448021
C        1.1000600296       -0.0571233016        3.7766325880
C        1.5679333984        0.4826108732        4.9821923088
C        1.4286816231       -0.2127960238        6.1791387542
C        0.8154049929       -1.4724214647        6.2197430873
C        0.3546483382       -2.0084432778        5.0135627016
C        0.4954239696       -1.3157159350        3.8105019989
H        2.0420937062        1.4673334195        4.9921789088
H        1.8041332884        0.2337236766        7.1038744469
H       -0.1254931718       -2.9905921209        5.0096091522
H        0.1281082456       -1.7738728585        2.8900319546
C        1.1811257250        2.1980927564        2.5707085630
C        0.0809400623        2.7232339536        3.2619509455
C       -0.1356304710        4.0953871101        3.3209114800
C        0.7378949738        4.9967680234        2.6949044709
C        1.8304324124        4.4674315882        2.0032423558
C        2.0501012840        3.0900742250        1.9396767355
H       -0.6154548125        2.0494897022        3.7665700630
H       -1.0022777323        4.4777377791        3.8671293870
H        2.5288056227        5.1423205983        1.5013083167
H        2.9117160422        2.7160870069        1.3821840187
C       -1.0685010718       -0.6988500647       -3.4507622037
C        0.0521230515       -1.1356596428       -4.1706897828
C        0.4903276621       -0.4460677819       -5.2954478063
C       -0.1738320320        0.7036933845       -5.7480541259
C       -1.2883228722        1.1360802129       -5.0251038080
C       -1.7301809254        0.4478138976       -3.8933542812
H        0.5889894289       -2.0313304123       -3.8495982903
H        1.3678527644       -0.8086492208       -5.8377925665
H       -1.8273629288        2.0302292765       -5.3492200450
H       -2.6009268510        0.8238497975       -3.3517817773
C       -1.4674857333       -2.9574185994       -2.3184606726
C       -1.9240743814       -3.5513577069       -3.5013340195
C       -2.0057408085       -4.9360899833       -3.6217299901
C       -1.6327165107       -5.7790069444       -2.5673114193
C       -1.1832094225       -5.1800659506       -1.3854015434
C       -1.1026595159       -3.7937630431       -1.2597782527
H       -2.2149947629       -2.9265210615       -4.3494825588
H       -2.3673457049       -5.3706335499       -4.5575262982
H       -0.8899177975       -5.8095338834       -0.5409617198
H       -0.7534864379       -3.3660709601       -0.3176785040
C        0.6492112132       -2.2055042406        7.5230234553
H        1.5903007613       -2.2203289058        8.0931889707
H       -0.1047697202       -1.7115471463        8.1566502307
H        0.3253684016       -3.2432260609        7.3621603182
C        0.5072009142        6.4805577189        2.7879374982
H        0.7207648806        6.8462344135        3.8051798103
H        1.1523877176        7.0324092789        2.0902412788
H       -0.5403900799        6.7346420748        2.5669305019
C        0.2960322698        1.4273726422       -6.9805058637
H        0.0883109029        0.8345058888       -7.8856957023
H       -0.2060463039        2.3984606640       -7.0921577136
H        1.3823912697        1.6001222608       -6.9500402059
H       -2.5163495400       -7.5847592498       -3.3647883424
H       -0.7559692038       -7.6557043514       -3.1660548397
H       -1.8041481982       -7.7698692582       -1.7386805033
