90
optimised geometry D13
H       -8.9416653764        7.4176110537       -6.7380181537
H        3.7752676452       -4.5144414509        4.5975314174
C        7.2003226241       -7.2095104682        5.6220103129
C        3.9788934239       -4.3409879049        1.8677567473
C       -1.8276836320       -0.0675483879       -2.3507994991
H        3.8922425507       -7.5325447312        6.5092960124
H       -1.5853398101       -1.1167917716       -2.5377624346
H       -6.1617880133        3.5868933559       -6.1103336085
C       -8.0344626508        7.2776328011       -6.1480488962
H       -7.9159078993        5.0646935575       -6.1921756486
C       -0.2792289177       -0.0721969608       -0.3775459623
C       -7.6297355912       12.0426389052       -5.2237310751
C        4.6131385336       -5.0797078079        4.1788921982
H       -4.8099590349        1.6862904340       -5.2871493404
C       -7.5918076991        9.7498176511       -5.6687060206
C        6.7483114847       -6.5814806075        3.1296448780
C       -3.0661301925        1.9003059724       -2.9436102390
H        7.8190063031       -9.2820618328        9.9218246842
C       -2.9878839120        4.0210714426       -1.7883266181
H        9.6199009539       -9.1996845466        6.9205907568
C       -4.7800258577        2.6441836655       -4.7631889700
H       -4.6817117329        6.0745067744       -2.8925670508
C       -1.5767706471        1.9521554080       -1.0297929753
C        8.3061358185       -8.0559502444        5.6520212534
C        7.0000508712       -7.3294214593        8.0352878289
C       -3.7350244602        4.2840691524       -0.4727560924
H       -3.1823327747        0.0267155418       -4.0290183332
C        5.5677663753       -4.5555524159        7.2128151761
H       -3.0498697302        4.1876365259        0.3834457273
H        4.0376759987       -6.6943266963        8.0782735353
C       -5.5224478939        4.9603933055       -4.5630294099
C       -4.7040719708        5.1219244854       -3.4299013147
H       -1.1244603623        4.9364870763       -1.1251165918
H        2.6278158012       -3.6054199315       -1.1243657053
H       -7.4062557037       12.9605845320       -4.6779471720
C       -3.9343642465        4.0598118547       -2.9800443459
C        5.4433279066       -5.8019863371        5.0223883151
C        5.9191892292       -5.8480764961        2.2847991392
C        5.3722523970       -5.9213201586        6.5386007874
H       -8.6804793348       13.2795891376       -8.0987422368
H        1.4635755203       -0.4856956301        2.4705752606
C       -5.5446876946        3.7143486051       -5.2188783681
C        2.3747205109       -2.7046288968        0.8412218146
S        3.0171449541       -3.0046655840        2.4262108917
S        0.5745669454       -1.4963663687       -0.8920532698
C        8.7527764835       -8.5348681415        6.8856406319
C        4.8433672820       -5.0939375439        2.7905909593
C        4.0462001079       -6.5528976512        6.9865488124
H       -1.1153650297        2.5000763784       -0.2048363978
H        4.7442273586       -3.8741591097        6.9489697126
C        6.5487669874       -6.8485063650        6.8143742267
H       -4.1506285185        5.3034072244       -0.4640383338
H       -0.3262137602        1.1236635383        1.4363297340
C        1.4252762196       -1.6250925584        0.6159442346
H        5.5810921531       -4.6660793568        8.3080438705
C        6.5086470368       -6.5558111062        4.5032813373
C       -9.0413778747       13.1777345213       -7.0636254666
H        4.2893456143       -5.3207437315       -0.0466374343
H        8.8181613328       -8.3420263896        4.7301264775
H        6.1180124508       -5.8495613391        1.2113543412
C       -2.4868635478        2.5850739923       -1.8614267388
C        1.0551185454       -0.6074301189        1.4658645296
H       -2.2238361681        6.0536919640       -1.9723083842
H       -1.2932900270        4.8453718737       -2.8998212856
H        6.5151673758       -4.0910198609        6.9001110573
H        7.5783489068       -7.1588452949        2.7163358155
C       -7.3293353129        8.3191774853       -5.5898282421
C       -7.1747546653       10.7520061488       -4.8258529737
C        0.0916206243        0.2698076248        0.9024086359
C       -2.7358944530        0.5694409452       -3.1930332256
H        8.8867431208       -7.8792099547       10.0792888335
C       -7.4788481032        6.0042153819       -5.8526299207
C       -1.8369981852        5.0231340179       -1.9597339965
C        3.7956747101       -4.5289032479        0.5173076493
C        2.8890270831       -3.6044654252       -0.0646849158
C        8.1147003903       -8.1840321031        8.0846912900
S       -8.5454593509       10.4087387730       -6.9667242037
H        6.4930299788       -7.0481093170        8.9633756981
S       -5.9602060110        7.7216799858       -4.7056731151
H       -8.8148912349       14.1100497452       -6.5286136496
H        9.4806872647       -9.3588120965        9.2860582529
C       -3.9712355191        2.8211018458       -3.6405528292
H      -10.1355677729       13.0626007071       -7.1039827712
C       -6.3520344024        6.0666468043       -5.0661796132
H       -6.5718121696       10.5707109215       -3.9342232941
H        3.1996321468       -5.9011275250        6.7208101181
H       -4.5622468046        3.5711528156       -0.3369350253
C        8.6051910715       -8.7062615545        9.4088483523
C       -1.2365572593        0.6062504914       -1.2657964593
C       -8.3917467837       12.0281680563       -6.3626336989
