122
optimised geometry D14
H       -3.0817789470      -13.8595602151       13.0367940024
C        3.5232951939        7.6631503695      -13.7726034448
C       -0.7739525855       -6.5865402452        8.6734143614
H        0.8566976302       -4.1954691056        5.0185795699
H       -0.0633609695        0.2002429778       -1.3154590139
C        0.6568755292        4.0116964116       -2.1007627326
C       -0.6263897912        0.1029782930        3.1322531854
H        3.5449473611        7.3369811595      -10.9138993035
H       -1.3588837755       -1.9864651319       -0.6089829808
H       -2.0412940238        4.4564766522       -6.2162012613
N        1.3974273544        4.6486638448       -1.1948295784
C       -1.0893939351        4.7745296977       -6.6473687399
C        2.2492617226        9.8104341956      -15.0109047916
C        0.4575005637       -7.0824452094        9.1364845335
H        3.6058488706        6.9962533869       -6.7943892815
H       -1.4589694926        1.4734334517       -2.8407692252
C        2.2828980568        8.1262947353      -13.2075500328
H        4.0210957377        7.7268564901       -8.3659420541
C       -0.2158004584        0.8116839146       -0.4221832933
H       -4.6410093446      -10.4512491051        9.7943948008
H        1.3815617491       -6.5859473523        8.8318557053
C       -0.9175861750       -9.9416348506       11.2715731742
C       -0.5729497475        2.3902195967        1.8811604693
C       -0.0463005577      -10.7693915392       11.9756009147
H       -1.0084272105       -0.4942015036        6.4463110485
C        0.0859261847        4.6493892585       -5.8856634622
C       -1.0666666601        5.3166923992       -7.9310482120
C        0.0248119703        4.0496509625       -4.5310527281
C       -0.8104112810        0.3705166452        4.4881934373
C       -0.5687916026       -2.2794433698        3.5700095392
C       -0.3086290084        6.6823666095      -10.8472884258
C       -1.7411052555       -3.2364172759        6.9671705109
C        0.2939783275        7.2529731748      -11.9670447703
C       -2.3064722643      -10.1484626690       11.3408144435
C        1.0273746703       -1.9036693544        0.7917709960
H        5.0452921817       10.4470344386      -16.5511185152
H       -1.4810232232       -3.0750594568        0.7961583069
H        1.0344391707      -10.6155563369       11.9278054020
H        3.9873258741        4.6689499500       -7.7880269258
H       -3.9071263438      -11.3397402584       12.1655146296
C       -1.9636856505       -7.2143251660        9.0835337834
C       -0.6659771520       -8.7920528101       10.3915961027
C       -0.7994571285       -5.4319971649        7.7435078276
C       -3.8521463222       -9.8097916550        9.3721949437
C       -0.3464668943        0.2144824109        0.8232863645
C       -0.4380740681        2.9872795863        0.6295813302
C       -0.3193507921       -1.2682865861        1.1667259533
S        5.5416281271        6.5237660560      -14.3286472488
C       -0.8759870049       -0.6957903459        5.3825983593
C        1.3082580420        5.0774760805       -6.4330132251
C       -0.2603396883        2.2126357474       -0.5307387921
C        3.4315546639        9.4117919050      -15.5754607484
C       -1.4728431911       -2.0189839239        0.4855040422
C        1.6887864608        9.1821683287      -13.8541407098
H       -4.4655818146       -7.4831543095       10.7432348028
H        1.0561407146       -2.9580003856        1.1071963752
H       -1.3852682191        6.4983814326      -10.8347986059
C       -0.7339008667        2.9375535556       -4.2586590809
C        0.7444457694        4.6064103732       -3.4168929728
S        2.1130280575        5.8912078518       -1.9495663122
H       -3.4282412235       -7.7671455554       12.1671040169
C       -0.5061584417       -1.2198829792        2.6766747323
C        2.5352739037        6.1365945192       -8.4872770043
H        1.1782570943       -1.8698916270       -0.2981774441
C       -0.5240158138        0.9998772650        1.9737891690
N        5.2261810689        7.7490337236      -15.3442076122
H        2.2312354671        4.9751152625       -5.8594510266
C       -1.9029177058       -8.3075166646        9.9345508916
H        3.4182455224       10.8869957533      -17.1391763967
H        4.1591483599        9.3291724125      -17.5981804085
C        4.0843596433        8.3031170126      -14.9400758898
C        3.1948458071        7.3193259765       -7.7633074908
N        1.5315215161        5.6808914447       -3.4472658266
H       -0.8977423809        1.3975184018        4.8498574460
H       -0.4860274373        4.0738402712        0.5475533061
C       -0.1556353530        2.8483596108       -1.8663416290
H       -2.9276256144       -6.8503347517        8.7234862959
C        3.5629148833        5.0237748402       -8.7398418276
H        0.0960943321      -12.4593264354       13.3053176113
H        0.8299443303       -6.1023847325        6.5456633751
H        4.3891441968        5.3981853620       -9.3637201044
H       -3.2289412982      -12.7604411058       14.4163811940
H       -3.1976189366      -10.4336644139        8.7448334729
N       -2.6951213240       -4.2609798813        8.8123383386
H        1.8633442841       -1.3747665485        1.2739317390
H        0.7501044013        9.5813396046      -13.4630209385
C       -2.5245155387      -13.1444134895       13.6621490033
H       -0.7184467356        3.0064082685        2.7712249841
S       -3.5018777189       -2.8837948575        8.5329701562
C       -3.9857348857       -8.2611982991       11.3569550295
C       -0.5787160533      -11.8039075678       12.7482792521
C       -2.8260250214      -11.1790991656       12.1112644187
C       -0.7828703827       -3.1573433823        5.8976214946
C       -1.9618756379      -12.0240915331       12.8283998352
H       -0.3187198602        7.5057073877      -12.8353459081
H        3.1016252673        4.1673881811       -9.2545282668
H        1.4879075004       -8.5463941220       10.3467963982
C        0.5214670633       -8.1807327394        9.9925472695
C        0.1004592069       -4.2053453593        5.8065443249
C        0.4886763347        6.3448795320       -9.7548487360
C        0.0926462003       -5.3127816998        6.7057318246
C       -3.0565815343       -9.1280329306       10.4947626959
C       -0.7548400913       -2.0253082801        4.9401750671
H       -0.4890962235       -3.3094177037        3.2124679037
N       -2.6950457985       -2.3458139133        7.2347454658
C       -1.7483394401       -4.3592673743        7.8801338650
C        4.0412839201       10.0571472139      -16.7803938507
C        0.1519711428        5.7394131066       -8.4595026831
C        1.8734513636        6.5792303865       -9.7845365275
H       -4.7787531380       -8.8774782965       11.8079347128
H       -1.7311098031      -13.6961436804       14.1851488473
C       -0.8208978192        2.3516846562       -2.9606962594
C        2.4700365804        7.1469709664      -10.9004815704
N        4.2591590432        6.6395651588      -13.3420785871
H        2.4692081420        8.1260055097       -7.5793638082
H       -2.4447287886       -1.5734042733        0.7461746231
C        1.6789783806        7.4922313826      -12.0103533779
H       -1.2940849186        2.4648543101       -5.0682927953
H        1.7061958885       10.6501256592      -15.4514489238
H       -4.3332024465       -9.0566448884        8.7291514581
C        1.3341644957        5.6160974992       -7.7106618807
H       -1.9912745138        5.4132499550       -8.5044868913
