152
optimised geometry D2
H        2.4385391373        5.6246552297       11.5859158180
C       -1.0705595811        3.2774012067        4.3312924121
S        3.8235195503        2.7265079765        9.9101479295
C       -3.5500829464        4.2349877150       -4.6190201385
H        9.0597455100        9.1818023628       17.2814656974
H       -6.2231015892        2.3238073969       -7.7941433453
H        8.2487848956       -0.1116443072        3.7390888236
H        7.5461999797       -1.4438955519        2.7977972278
C       -3.9421398529        2.3211533104       -5.9303449788
H       -8.5934279115       -0.3746246178      -14.0245705057
H       -7.5708651567       -6.8218711206      -17.6073455319
C       -2.9073433482        4.8798241691        3.7259986903
C       -0.0344944399        1.4199285047        2.0949538945
H       -8.2794190154       -2.9853742198      -13.7504509570
H       -1.7978701914      -11.4875342067      -14.1101788458
C        2.7078883949        4.8113844221       10.9104695467
C        6.6180933126        2.8261433911       15.3023469224
C        5.9245539669        7.0886147154       15.6657249933
C       -5.4429146556       -7.0458274571      -15.1279733978
C       -2.5221002643        2.0734285613       -3.8328516630
O        7.1663752343        3.3434342507       16.2645508334
H        4.8414840995        7.2213853011       15.6538337682
C        8.1437495226        7.5991827773       16.1868800762
C        2.6863746768        1.0509682437        4.5712807686
C        1.0096388285        2.5705336288        5.5249654689
S        5.2163691766        0.4596911861        3.4964034090
C        0.1895408635        2.5146380371        4.3959621527
H        8.2258848647       -0.2884074696       17.6618047168
C       -3.3170063948        2.8846760897       -4.7646189149
C        5.2226468932       -1.6039163307       13.1330083302
C       -3.2113649165       -3.6750482522       -6.1396304705
H       -6.0140316099       -6.2808041262      -18.2670346010
H        3.6797023168       -0.8309864907        6.5061330315
C       -5.0181902838       -4.3583373856      -11.8791755498
C        7.8803942123        0.6636653787       17.2371416205
C       -4.1482095401       -4.2519745961       -9.7076584539
C       -5.2154514421       -6.2561094220      -13.9410962863
S        0.7031997061        3.5301873362        6.9531173488
C        6.5163915929        1.3676627712       15.1386728276
C       -3.0883995042        5.1773529098       -3.5575587827
S        8.2745274587        6.1410514182       15.2622743693
H       -7.2437973420        1.8342175625      -13.8748137404
H       -5.9777420800        1.7490571974      -12.6248058449
C       -3.8118622078        0.9002694856       -6.2802803031
C        2.9090601383        2.1532965724        6.8711752605
S       -4.5352220201        4.7943090803       -5.9210990823
C        2.2214118941        3.0190186514        7.6691586677
H        5.4185440994       -2.6353132131       13.4552963785
C        6.2452523598       -0.6574534777        4.3310547140
H        1.6015329364       -1.6354836054       -0.3447052914
O       -2.0304855163        2.5470553405       -2.8170035479
C        5.8059989823        0.7629279868       14.0414790922
H        6.5225590297        8.8593877517       16.8733803137
H       -5.8807450086        4.0126751447       -8.2587006339
H        8.7576512761        1.2907900501       17.0221019512
C        7.0767516522        0.4480715329       15.9979674654
C       -2.7813206844       -1.2861829038       -5.4901053739
S       -6.4620001750       -4.7230008702      -15.6576285613
C        5.8289932114       -0.6147330643       14.0722379489
C       -3.7573260475        5.9204564087        3.0697338444
C        4.3255769292       -0.5778139067        5.6641767280
H       -1.6828093339      -11.9670550311      -12.3985740353
S       -2.7209380056       -8.5785190138      -13.5837281518
C        3.6869260445        3.8790941213       11.1997364970
H       -5.1728049894       -2.5541947586      -10.5708659565
O        4.5499877142        1.0368711831       12.0588956631
C        2.0875821602        4.6087341655        9.6569175053
C        9.3586944965        8.2780930686       16.7333518056
C        5.9319479986        5.0085830881       14.2127694293
C       -6.0837190415       -6.3715480977      -16.1175140526
H       -2.1810998847        2.5459359974        6.0429249364
C       -2.3693591605        0.6438229946       -4.1853468839
C       -5.4252696204        3.0677447760       -7.9333148665
H       -3.4293674690        6.2023989978       -3.7550070486
C       -5.6517695384       -3.9711812472      -13.0778592773
C       -4.4955433383       -5.6710704372      -11.7410542167
C       -6.4802748378       -6.8748680826      -17.4659278722
H       -0.5738886416      -10.7413066354      -13.0617967444
C       -3.9882269276       -7.9789965217      -12.5532346048
C       -2.5905860071      -10.0617805772      -12.6952215719
H        4.1345670971       -1.4576003303       13.0694918534
C       -3.4830519084      -10.0750373930      -11.6557447798
H        8.0835389495       -1.7261826812        4.4725484746
C       -6.1964851469       -2.6154506408      -13.2798209110
O       -4.3223728183        0.4323082742       -7.2893127559
H       -3.2559786161        6.9003065506        3.0491260217
H       -3.9997065532        5.6498508731        2.0305802764
H        6.0991484822       -1.8381978973        6.1376966578
H       -3.5718552124      -10.9175866643      -10.9681802031
S        6.7242097197       -1.1491644589       15.4475772091
H       -3.0032017916       -4.0763716685       -5.1465340619
C       -3.7678669615       -3.7669101925       -8.3882744460
C       -3.5307892547       -4.4957364931       -7.2427894724
H       -3.6111412132       -5.5820007012       -7.1847595668
S       -3.6158257085       -2.0702514030       -8.1011681638
C       -4.6486276715        3.2440337616       -6.6708328585
H       -1.0072992788        1.8375228447        1.8328162022
C        0.6359469523        1.7000040674        3.3358931191
C       -4.5709621890       -6.6376459545      -12.7488333775
H        5.6290504953       -1.4706550620       12.1196930412
C        3.9474090784        0.2961654952        4.6768659169
S       -1.3487247464        4.4651483010        3.0905136437
S       -0.9284617598        0.8960137836       -0.9550389927
H       10.0516043049        8.5756552121       15.9314841462
C        5.1345736494        1.5559965214       12.9995032991
C       -3.2075164536       -2.3208791967       -6.4315125769
H       -4.6992226969        6.0294277699        3.6243639882
C        1.8657319479        0.9954187462        3.4406377411
C        5.9731004492        3.6290775741       14.2307567546
C        4.5853599955        3.9581487922       12.3518566866
H        0.4981520388       -1.9543123051       -2.6796360214
C        0.2767516253        0.0723352949       -0.0279156262
S       -1.7523474574       -1.8359096991       -4.2088385202
H        1.2912843029        5.2453059247        9.2685225426
C       -5.7382318421       -4.9414856975      -14.0798791776
C       -3.1806514269        4.1354965284        4.8435232678
C       -2.1374053444        3.2272232589        5.1917292838
C        0.6527899005        0.5598062840        1.2907431995
C        5.6287095190       -1.1201411675        5.4642390679
C        2.6067404164        3.5283519050        8.9770495577
H       -4.1129980127        4.2341412447        5.4016020801
H       -5.5373934470        1.6264135225      -14.3410481242
C       -1.6235450608       -0.2760392395       -3.4641854514
C       -4.8123564902       -3.5767824873      -10.6884403919
H        7.2828298084        1.1881839016       17.9972664767
C       -0.7738264722       -0.2243691316       -2.2746618189
C        0.2075930502       -1.1596767845       -1.9910346887
C        7.6019279983       -1.0000873668        3.8036123907
S       -3.7398412219       -5.8907524200      -10.1797700656
C       -6.2994134770        1.3463300983      -13.5976805424
S        2.1667839050        0.0392604172        2.0074776026
H       -6.1657515081       -7.9206825181      -17.5816635016
S       -5.1895515120       -1.2016083207      -13.1507719435
C       -3.0064885319        0.0750029942       -5.3517387622
C       -7.6458684330       -0.8497970097      -13.7660786326
H       -5.1368903534       -8.0872338307      -15.2311374380
C       -1.6080696834      -11.1174471370      -13.0909056114
C        2.2392662319        1.8665599760        5.6312500725
C       -4.2754345733       -8.8917699293      -11.5707747890
C       -6.4987363935       -0.1347209924      -13.5420540839
H       -5.0431278160       -8.7249993743      -10.8135817056
S        4.9768787772        5.5592966820       12.8864436925
C       -7.4759956318       -2.2585913014      -13.6213200866
C        6.8302696351        7.9716509892       16.3191072399
H        3.8832399963        1.7389984670        7.1325190513
H        9.9118371998        7.6237562324       17.4243935141
H       -4.7723553182        2.6987214807       -8.7378554005
C        6.5535774507        6.0299877102       15.0564726298
C        5.2233370074        3.0265862868       13.1566366896
H       -3.4698777180        4.8651068150       -2.5742410760
H       -1.9904903367        5.1787436211       -3.4952969226
C        0.8080414625       -0.9909282023       -0.7254926367
