158
optimised geometry D6
H      -10.4187316600        6.6125475477      -11.4707124349
C       -0.5446835683       -2.4203807869       -5.4868400280
C       -2.9905133979        0.2730746427       -6.6444862262
S       -7.0971189873        1.7313099211      -14.2383404858
H       -6.1323609874        6.6404242312       -5.8653854740
N        1.1135728229        3.4296931005        8.2209829899
O       -7.9869181455        5.1569722715      -10.8520443726
C       -3.4458931503       -1.3016737735      -11.2291870819
S        3.4379244436        0.2473417344       14.4244410348
C        3.6732160472        1.3982377616       15.6986023893
C       -6.2146821113        2.0916605563      -11.6326237908
H       -4.4773805221        6.5415496691       -5.2280873620
S        8.9396047010       -3.0856977043        9.2599321147
H       -2.2616761593       -2.2015839868      -14.2469875245
H        5.3137299583       -1.4673583708        8.3517701485
C        0.4368797449        4.6363223886        8.6431049301
H        7.0939026726       -1.3363938869       15.3379931179
C        1.3761396069       -5.5293611543       -5.9780984574
C        0.9099513521       -3.7783801307       -4.2406850711
S       -6.1862166810        2.8617071104      -10.0552567388
C       -2.9285897785        2.9147343317        0.5286210164
C        0.1565292817       -1.3061614787       -1.9481193354
C       -5.4569006762        6.0394580739       -5.2373693827
C       -2.9217118813       -1.0354170529      -12.4687053790
C        1.8014606351        1.6760161669        6.9193881627
C        1.6572049873       -0.5916946479        2.5458867656
C       -0.3024833032       -0.2813520943       -1.1695711418
H        2.8886648666        2.5883978841       17.2831406196
O        2.2436082953        2.9607158903       10.1794962349
C        4.9939007530        1.7544475004       15.7825476828
H       -2.7036381573       -0.0228847216      -12.8114179997
H        2.0346186546        1.0414999800       17.0595862188
H       -0.6525504929        4.4978435408        8.6130100962
S        3.2451820830       -0.4112474362        6.8052776352
H       -9.1958725693        1.7142839682      -16.5038576449
H       -5.8516057839        6.0393996374       -4.2122719878
H       -2.5167480370       -4.7785291420      -14.1075808540
C        2.5260965046        1.8734085359       16.5321002983
C        9.1563921800       -3.3424915230       15.3744065545
C       -7.8467915202        3.7061314898      -12.8210494075
H       -3.9752554406        3.0381248861        0.2463617689
C       -0.1131640684       -3.5666205119       -6.3216618096
H       -1.8171335265        6.0037953742        0.1584082558
C        2.4202736950        1.5512500330        8.1919731502
C       -5.4599592511        2.3005285888       -5.8630633687
C       -1.3601278321       -1.3239509571       -5.6100101907
H        1.7615245634        2.3763414029       15.9202699254
C        9.8296067374       -4.6862678909        7.1236837285
C       -5.4000876346        0.9969546005      -11.6926942206
S        0.5989563646        1.4603941413        3.8001586360
C       -8.1937225111        2.8556439758      -14.9863501335
C        0.7374479800        0.4761463440        2.3625568178
H       -5.6766813315        1.2873599071       -5.5213625876
H        0.7445748345        4.8606772001        9.6703996385
H       -3.8959612761       -5.2796912127      -13.0979764109
C        5.1261264318        0.2532596176       13.9983734816
C       -3.0275606745       -3.3680028663      -12.5939487997
C       -0.2376974956       -1.5575496750       -3.3244322253
H       10.2244238307       -3.1811772415       15.1611861339
H        6.8959533399        1.2630055363       14.7290904739
C        1.1762562693       -1.3372468278        0.3329846245
S       -1.3331798785       -0.4413920895       -4.1028111761
C        5.6539039689       -0.5901106107       12.9101758112
O        1.6049306393       -4.2618353864       -3.3758883628
H       -6.1087230602        3.4627456504       -4.0781490654
S        2.4433165857       -4.2817453062        1.4499551833
C       -3.3349518037       -0.4025495506       -8.8770929531
C       -2.9172257629       -4.7761430635      -13.0847241073
H        9.4557719857       -5.3742506992        6.3532273885
C       -8.6700996184        2.6735205048      -16.3860200537
C        6.7282818569       -2.2234469921       10.7675245569
C       -2.1166830038        3.9754240552        0.8357873721
C        1.9696431274        2.6859711582        9.0331289347
S       -2.2031552141       -1.5933104503       -8.2799620106
C        0.2572285921       -0.2689143104        0.1496109662
C        4.3739264374       -6.2902791546        1.8397843651
C        4.0862439681       -0.0190755139        9.4010718226
S        3.9192296718        0.5750841611       11.0436452590
H        5.4203978258       -6.4273878666        2.1442764548
H       10.5771148460       -5.2219667445        7.7287407030
H       10.3447642973       -3.8540402970        6.6198998753
H        9.0016320938       -4.4268870511       15.4850732382
H       -2.3282513253        5.8666319908        1.8540427803
C       -7.0385239334        2.6027633345      -12.7169808719
C       -4.9421756194        2.5693626165       -7.1048553191
C       -9.7677743004        6.8187125897      -12.3314223099
H       -3.1088871875        0.8938385060       -5.7557368428
H        2.9331957170       -1.3266639619        4.2080036388
C        7.3601788371       -4.5295308839        7.8598356250
S       -4.7321642511        4.2848467722       -7.3135527602
H       -5.2827065729        0.3777930670      -12.5826183419
C        3.2592142979        0.4721193629        8.3117498676
H        5.3632157964        2.4721416717       16.5167732000
C       -8.4829391856        3.8376333881      -14.0855888225
C        5.0437954093       -0.9878415577        9.2932946857
C       -5.3512188448        4.6325745423       -5.7327326407
H        6.9803042929       -5.2237129354        7.1086278284
H        5.4620948895       -4.0179894199        8.9094947228
C        2.2152911054       -0.5801049777        3.8660631537
C        0.9582991356        2.8950442504        6.9455443296
C        0.0158880301        0.6633990432        1.1805041155
H       -9.3588147359        3.4871518515      -16.6445974047
H       -9.0095958901        7.5580079508      -12.0392338698
O        0.2595061772        3.3835290209        6.0857473541
H       -3.5005353745        5.5699749574        0.5460630530
S       -3.6560822860       -3.0168787889      -11.0176419277
C        1.8987765880       -1.5237619582        1.5148074277
O      -10.0147960274        5.5378196376      -14.9336804510
S        8.4687755111       -3.3716776782       12.6499233415
C        5.6831910352       -1.3017506983       10.5375305795
H       -1.0202247876        0.4655544246       -1.5110477728
C        7.2488535685       -3.0615953367        9.6730362088
C        2.1393655147        0.6929461572        6.0239010835
H      -10.3710080850        7.2246980833      -13.1511238792
C       -3.8287263340       -0.3372059492      -10.1833892013
C       -4.7128373466        0.7257275655      -10.4631433399
O       -0.3976048825       -3.8570816997       -7.4621033453
C       -2.6823976370       -2.2097783091      -13.2403415244
C        5.1659058490       -0.5161281010       11.5999339721
C        6.6966719815       -1.5074802145       13.1417587195
C       -2.1760232620       -0.8223003049       -6.7030872141
H       -2.2444350571       -5.3743520060      -12.4512262492
C        8.6876809481       -4.2037007230        7.9599663894
C        7.2135666942       -2.2951152151       12.0747277088
H       -2.7577945280        0.6953775625        0.4214561234
H        4.2488891894       -6.7233775041        0.8354771192
C        5.8206478094        1.1034443786       14.8202381617
C       -9.3135343912        5.0598284416      -14.0678889805
C        1.7526847863        0.4424156775        4.6453854046
H        0.7110988538        5.4764052221        7.9908005318
H        3.7373986146       -6.8639509539        2.5307031885
C        6.5413030311       -3.8798914465        8.8291117703
H        8.9161624905       -2.8578835901       16.3300970182
S        1.3105360846       -2.3242644138       -1.1032042873
N       -9.1363015454        5.6028788301      -12.7940886241
H       -7.8284857378        2.6845233042      -17.0946383380
C       -2.4541495762        5.4320621842        0.8504806340
C        0.0790314145       -2.5502429096       -4.2173677363
C       -2.2733133697        1.6523292962        0.6208122625
C       -0.9598659843        1.7527861190        1.0044283124
C        8.2973811309       -2.7801169202       14.2908915556
C        7.3446251015       -1.8183068186       14.3930421598
C       -8.2751069193        4.8569897887      -11.9896943021
C       -5.6939578459        3.4730930563       -5.0872454687
N        0.7406948594       -4.3147650641       -5.5164307396
H        1.9733661326       -5.9379218453       -5.1554454467
H        0.6193573571       -6.2668075122       -6.2780323912
H        2.0327992145       -5.3190444878       -6.8332977851
C       -3.6767922307        0.5431366368       -7.8732566643
C       -4.5612107444        1.6062601821       -8.1525004664
C       -5.0542698774        1.6713862538       -9.4583621628
C        2.8752420782       -2.6125626487        1.6905699427
C        4.1883799953       -2.5111070964        2.0749912423
C        4.8451308150       -3.7728537049        2.1657730327
C        4.0346652262       -4.8340836063        1.8567010484
H        4.6716765422       -1.5538576327        2.2757822135
H        5.8918423302       -3.8953276858        2.4482657310
S       -0.5258523388        3.4217399314        1.2426723240
