92
optimised geometry D7
N      -10.8348989842       -4.6684664498      -11.3273370729
C        3.2480030266        0.7026389733        5.3873614206
H      -13.6146017712       -5.0768897049      -11.5504253237
C       12.6373899529        4.6148070170       11.1242678376
H        1.8458886632        2.1218387442       -1.9851356944
S        5.8912687773        2.2323804704        5.2259119825
C        6.2110061976        2.8061815352        2.7376861213
C        5.3171503478        2.1654873831        3.5798196808
S        9.6989676934        4.4294982046        5.2736546553
C       -3.4969735400       -1.4270939188       -4.0571276446
C       -7.4052535334       -3.2663108706       -8.3071656665
C        4.0921979472        1.5417703252        3.1395581815
C        2.0794439658        0.3948772477        3.2120805190
H      -10.0749889014       -4.0068013260      -13.1322763150
C       -9.5776750859       -4.4382762730       -7.9160304678
N        2.8004393342        1.3467500101       -0.2667357636
S       13.4630908350        6.5121349590        9.6070166463
H       -1.7823947416       -0.0231041157       -3.8128626167
C       11.4227376073        5.0293940196        7.5401792449
C        2.7315949053        1.5374010716       -1.6996906824
C        3.8959165857        1.8504727184        0.4765582988
H      -11.4095975285       -5.7325602942       -5.3775894035
O       -8.7700389405       -3.6207374076      -11.1283564836
C        7.3316841661        3.3369020130        3.4061769909
H       -5.4368468486       -2.2804756493       -8.1380228971
C        0.6583037912        0.0785779569        0.1070870759
O      -12.5945918835       -6.0896571785       -7.3591033452
C       13.6856939567        5.2690613353       11.8324925652
C      -10.9510736509       -4.5529932670      -12.7646377414
C       -8.3410734282       -3.8399144834       -7.4634537949
C       -0.2517217294       -0.5374239704        0.9503534570
H      -11.8578587940       -3.9972515019      -13.0409770262
C        9.4104692462        3.8135923604        7.7586208981
C       -2.3006889370       -1.2598056953       -2.0918177188
C       -6.3460620390       -2.9264252274       -6.2638180802
C       -2.4221945473       -0.7933416121       -3.3805820858
H        8.1338715367        3.8727942920        2.8970501132
C      -10.4915201168       -5.2068662226       -5.6650498915
C       15.3584667781        7.2170873415       11.5629138962
C       -9.7233546386       -4.1823370072      -10.5988540928
H       14.0266786195        4.9711070832       12.8249973195
H       -0.0993777946       -0.5920834135        2.0290358675
H       15.0411491630        8.2709453620       11.5899082736
S       -3.4971020456       -2.4827682654       -1.7057879981
H       -9.6346703048       -5.8204973903       -5.3531394727
C       -5.3777108391       -2.5285391911       -5.2545311797
C        7.3090144921        3.1084120615        4.7679684604
C        8.2887992412        3.5067935696        5.7639767470
H        3.2451103680        1.6622448698        5.9229257737
C      -11.6309553831       -5.5226997779       -7.8567537071
C       12.3950546422        5.1682478938        9.8895276447
C       14.2425421594        6.3153188423       11.1436856645
S        9.9921067953        3.8701277647        9.3882590202
S       -7.8116959060       -3.7194343550       -5.8075582442
C      -11.2974575705       -5.1809092719       -9.2159919583
C       -1.3724805296       -1.0657570440        0.2783548227
H       -7.5418238554       -3.2315356799       -9.3890999226
C      -10.0315128897       -4.5176900899       -9.2221156484
S        0.1081451550       -0.0203860651       -1.5444131266
C        8.2746412405        3.2547093450        7.1170370151
C       -6.2799190875       -2.7516662701       -7.6310453996
H        4.1307301131        0.1123900633        5.6702510569
H      -10.9770974028       -5.5438861582      -13.2395652979
H       12.0928919324        3.7516012883       11.5114819414
H       12.2222686691        5.5687231666        7.0315793383
H      -10.4756149837       -4.2394705641       -5.1435624366
H       -5.8973874854       -3.7657269840       -3.5348627708
H      -13.6133512284       -6.2634414328      -10.2077446703
H      -12.8002070477       -6.6385819927      -11.7601594321
C       10.2774956690        4.4803014357        6.9017814519
O        4.8262093016        2.4574096663       -0.0429731112
H        7.4876369399        2.6965070794        7.6257781840
H        6.0442987710        2.8813309206        1.6623659062
C      -13.0213776757       -5.8447762960      -11.0297646059
O        1.1483142860       -0.2102114842        3.7312460947
H        2.3535294179        0.1432713211        5.6839377226
H        2.7422036737        0.5775378250       -2.2348278031
C      -11.7678882559       -5.2609628323      -10.5031441435
N      -10.5311385706       -5.0387451101       -7.1012064137
H        3.6233297136        2.1020020692       -1.9945667104
H       -2.1959909331       -1.5688921387        0.7867855445
N        3.1771915084        0.8948313892        3.9547017982
C       -1.3298815487       -0.8607450877       -1.0860107621
H       15.6997510137        6.9360241365       12.5684194821
H       16.2164707079        7.1464252853       10.8766801938
C       11.4108155467        4.7744356518        8.8914520980
C       -4.1828436417       -2.3606821247       -3.2885033168
C       -5.2575925250       -2.9947360336       -3.9656968211
C        1.8839339210        0.7022824943        0.5488964985
S       -4.1818434831       -1.3052341242       -5.6400235724
C        2.3666092979        0.7732440581        1.8487909291
C        3.6069689542        1.4749897316        1.8396278994
